*Heading
** Job name: 350MPa_StepWave_RodCone Model name: 350MPa_StepWave_RodCone
** Generated by: Abaqus/CAE 2021
*Preprint, echo=NO, model=NO, history=NO, contact=NO
**
** PARTS
**
*Part, name=Rod
*Node
      1,           0.,           0.
      2, 0.00312500005,           0.
      3, 0.00625000009,           0.
      4, 0.00937500037,           0.
      5, 0.0125000002,           0.
      6,     0.015625,           0.
      7, 0.0187500007,           0.
      8, 0.0218749996,           0.
      9, 0.0250000004,           0.
     10, 0.0281249993,           0.
     11,      0.03125,           0.
     12, 0.0343750007,           0.
     13, 0.0375000015,           0.
     14, 0.0406249985,           0.
     15, 0.0437499993,           0.
     16,     0.046875,           0.
     17, 0.0500000007,           0.
     18, 0.0531250015,           0.
     19, 0.0562499985,           0.
     20, 0.0593749993,           0.
** ... 2381 like lines cut
*Element, type=T2D2
   1,    1,    2
   2,    2,    3
   3,    3,    4
   4,    4,    5
   5,    5,    6
   6,    6,    7
   7,    7,    8
   8,    8,    9
   9,    9,   10
  10,   10,   11
  11,   11,   12
  12,   12,   13
  13,   13,   14
  14,   14,   15
  15,   15,   16
  16,   16,   17
  17,   17,   18
  18,   18,   19
  19,   19,   20
  20,   20,   21
** ... 2380 like lines cut
*Elset, elset="Element 1"
 1,
*Elset, elset="Element 2"
 2,
*Elset, elset="Element 3"
 3,
*Elset, elset="Element 4"
 4,
*Elset, elset="Element 5"
 5,
*Elset, elset="Element 6"
 6,
*Elset, elset="Element 7"
 7,
*Elset, elset="Element 8"
 8,
*Elset, elset="Element 9"
 9,
*Elset, elset="Element 10"
 10,
*Elset, elset="Element 11"
 11,
*Elset, elset="Element 12"
 12,
*Elset, elset="Element 13"
 13,
*Elset, elset="Element 14"
 14,
*Elset, elset="Element 15"
 15,
*Elset, elset="Element 16"
 16,
*Elset, elset="Element 17"
 17,
*Elset, elset="Element 18"
 18,
*Elset, elset="Element 19"
 19,
*Elset, elset="Element 20"
 20,
** ... 4760 like lines cut
*Nset, nset="Measurement Nodes"
    1,   40,   80,  120,  160,  200,  240,  280,  320,  360,  400,  440,  480,  520,  560,  600
  640,  680,  720,  760,  800,  840,  880,  920,  960, 1000, 1040, 1080, 1120, 1160, 1200, 1240
 1280, 1320, 1360, 1400, 1440, 1480, 1520, 1560, 1600, 1640, 1680, 1720, 1760, 1800, 1840, 1880
 1920, 1960, 2000, 2040, 2080, 2120, 2160, 2200, 2240, 2280, 2320, 2360, 2400
*Elset, elset="Measurement Elements"
    1,   40,   80,  120,  160,  200,  240,  280,  320,  360,  400,  440,  480,  520,  560,  600
  640,  680,  720,  760,  800,  840,  880,  920,  960, 1000, 1040, 1080, 1120, 1160, 1200, 1240
 1280, 1320, 1360, 1400, 1440, 1480, 1520, 1560, 1600, 1640, 1680, 1720, 1760, 1800, 1840, 1880
 1920, 1960, 2000, 2040, 2080, 2120, 2160, 2200, 2240, 2280, 2320, 2360, 2400
** Section: Area 0
*Solid Section, elset="Element 1", material=Aluminum
0.021904,
** Section: Area 1
*Solid Section, elset="Element 2", material=Aluminum
0.021904,
** Section: Area 2
*Solid Section, elset="Element 3", material=Aluminum
0.021904,
** Section: Area 3
*Solid Section, elset="Element 4", material=Aluminum
0.021904,
** Section: Area 4
*Solid Section, elset="Element 5", material=Aluminum
0.021904,
** Section: Area 5
*Solid Section, elset="Element 6", material=Aluminum
0.021904,
** Section: Area 6
*Solid Section, elset="Element 7", material=Aluminum
0.021904,
** Section: Area 7
*Solid Section, elset="Element 8", material=Aluminum
0.021904,
** Section: Area 8
*Solid Section, elset="Element 9", material=Aluminum
0.021904,
** Section: Area 9
*Solid Section, elset="Element 10", material=Aluminum
0.021904,
** Section: Area 10
*Solid Section, elset="Element 11", material=Aluminum
0.021904,
** Section: Area 11
*Solid Section, elset="Element 12", material=Aluminum
0.021904,
** Section: Area 12
*Solid Section, elset="Element 13", material=Aluminum
0.021904,
** Section: Area 13
*Solid Section, elset="Element 14", material=Aluminum
0.021904,
** Section: Area 14
*Solid Section, elset="Element 15", material=Aluminum
0.021904,
** Section: Area 15
*Solid Section, elset="Element 16", material=Aluminum
0.021904,
** Section: Area 16
*Solid Section, elset="Element 17", material=Aluminum
0.021904,
** Section: Area 17
*Solid Section, elset="Element 18", material=Aluminum
0.021904,
** Section: Area 18
*Solid Section, elset="Element 19", material=Aluminum
0.021904,
** Section: Area 19
*Solid Section, elset="Element 20", material=Aluminum
** ... 7141 like lines cut
*End Part
**  
**
** ASSEMBLY
**
*Assembly, name=Assembly
**  
*Instance, name=Rod-1, part=Rod
*End Instance
**  
*Nset, nset=_PickedSet4, internal, instance=Rod-1
 1,
*End Assembly
*Amplitude, name=Amp
             0.,              1.,           5e-08,              1.,           1e-07,              1.,         1.5e-07,              1.
          2e-07,              1.,         2.5e-07,              1.,           3e-07,              1.,         3.5e-07,              1.
          4e-07,              1.,         4.5e-07,              1.,           5e-07,              1.,         5.5e-07,              1.
          6e-07,              1.,         6.5e-07,              1.,           7e-07,              1.,         7.5e-07,              1.
          8e-07,              1.,         8.5e-07,              1.,           9e-07,              1.,         9.5e-07,              1.
          1e-06,              1.,        1.05e-06,              1.,         1.1e-06,              1.,        1.15e-06,              1.
        1.2e-06,              1.,        1.25e-06,              1.,         1.3e-06,              1.,        1.35e-06,              1.
        1.4e-06,              1.,        1.45e-06,              1.,         1.5e-06,              1.,        1.55e-06,              1.
        1.6e-06,              1.,        1.65e-06,              1.,         1.7e-06,              1.,        1.75e-06,              1.
        1.8e-06,              1.,        1.85e-06,              1.,         1.9e-06,              1.,        1.95e-06,              1.
          2e-06,              1.,        2.05e-06,              1.,         2.1e-06,              1.,        2.15e-06,              1.
        2.2e-06,              1.,        2.25e-06,              1.,         2.3e-06,              1.,        2.35e-06,              1.
        2.4e-06,              1.,        2.45e-06,              1.,         2.5e-06,              1.,        2.55e-06,              1.
        2.6e-06,              1.,        2.65e-06,              1.,         2.7e-06,              1.,        2.75e-06,              1.
        2.8e-06,              1.,        2.85e-06,              1.,         2.9e-06,              1.,        2.95e-06,              1.
          3e-06,              1.,        3.05e-06,              1.,         3.1e-06,              1.,        3.15e-06,              1.
        3.2e-06,              1.,        3.25e-06,              1.,         3.3e-06,              1.,        3.35e-06,              1.
        3.4e-06,              1.,        3.45e-06,              1.,         3.5e-06,              1.,        3.55e-06,              1.
        3.6e-06,              1.,        3.65e-06,              1.,         3.7e-06,              1.,        3.75e-06,              1.
        3.8e-06,              1.,        3.85e-06,              1.,         3.9e-06,              1.,        3.95e-06,              1.
** ... 14981 like lines cut
** 
** MATERIALS
** 
*Material, name=Aluminum
*Density
2700.,
*Elastic
 6.89e+10, 0.33
*Plastic
    2.76e+08,          0.
 2.76028e+08, 1.60272e-06
 2.76055e+08, 3.20625e-06
 2.76083e+08, 4.81057e-06
  2.7611e+08,  6.4157e-06
 2.76138e+08, 8.02163e-06
 2.76166e+08, 9.62836e-06
 2.76193e+08, 1.12359e-05
 2.76221e+08, 1.28442e-05
 2.76248e+08, 1.44534e-05
 2.76276e+08, 1.60633e-05
 2.76304e+08, 1.76741e-05
 2.76331e+08, 1.92856e-05
 2.76359e+08,  2.0898e-05
 2.76386e+08, 2.25111e-05
 2.76414e+08, 2.41251e-05
 2.76442e+08, 2.57399e-05
 2.76469e+08, 2.73554e-05
 2.76497e+08, 2.89718e-05
 2.76524e+08,  3.0589e-05
** ... 19981 like lines cut
** ----------------------------------------------------------------
** 
** STEP: Explicit_Dynamic
** 
*Step, name=Explicit_Dynamic, nlgeom=YES
*Dynamic, Explicit
, 0.00296936
*Bulk Viscosity
0.06, 1.2
** 
** LOADS
** 
** Name: Load-1   Type: Concentrated force
*Cload, amplitude=Amp
_PickedSet4, 1, 7.66639e+06
** 
** OUTPUT REQUESTS
** 
*Restart, write, number interval=1, time marks=NO
** 
** FIELD OUTPUT: Element Measure
** 
*Output, field, time interval=1e-100
*Element Output, elset=Rod-1."Measurement Elements", directions=YES
LE, PE, S, PEEQ
** 
** FIELD OUTPUT: F-Output-1
** 
*Output, field, variable=PRESELECT
** 
** HISTORY OUTPUT: H-Output-1
** 
*Output, history, variable=PRESELECT
*End Step
