*Heading
** Job name: Straight-Rod-Unloading Model name: Straight Rod-Unloading
** Generated by: Abaqus/CAE 2021
*Preprint, echo=NO, model=NO, history=NO, contact=NO
**
** PARTS
**
*Part, name=Part-1
*Node
      1,         -2.5,           0.
      2,  -2.49499989,           0.
      3,  -2.49000001,           0.
      4,   -2.4849999,           0.
      5,  -2.48000002,           0.
      6,   -2.4749999,           0.
      7,  -2.47000003,           0.
      8,  -2.46499991,           0.
      9,  -2.46000004,           0.
     10,  -2.45499992,           0.
     11,  -2.45000005,           0.
     12,  -2.44499993,           0.
     13,  -2.44000006,           0.
     14,  -2.43499994,           0.
     15,  -2.43000007,           0.
     16,  -2.42499995,           0.
     17,  -2.42000008,           0.
     18,  -2.41499996,           0.
     19,  -2.41000009,           0.
     20,  -2.40499997,           0.
** ... 981 like lines cut
*Element, type=T2D2
   1,    1,    2
   2,    2,    3
   3,    3,    4
   4,    4,    5
   5,    5,    6
   6,    6,    7
   7,    7,    8
   8,    8,    9
   9,    9,   10
  10,   10,   11
  11,   11,   12
  12,   12,   13
  13,   13,   14
  14,   14,   15
  15,   15,   16
  16,   16,   17
  17,   17,   18
  18,   18,   19
  19,   19,   20
  20,   20,   21
** ... 980 like lines cut
*Nset, nset=Set-1, generate
    1,  1001,     1
*Elset, elset=Set-1, generate
    1,  1000,     1
*Nset, nset=Set-2, generate
    1,  1001,     1
*Elset, elset=Set-2, generate
    1,  1000,     1
*Nset, nset=Set-3, generate
    1,  1001,     1
*Elset, elset=Set-3, generate
    1,  1000,     1
*Nset, nset=Set-5, generate
    1,  1001,     1
*Elset, elset=Set-5, generate
    1,  1000,     1
** Section: Section-2
*Solid Section, elset=Set-5, material=Material-1
1.,
*End Part
**  
**
** ASSEMBLY
**
*Assembly, name=Assembly
**  
*Instance, name=Part-1-1, part=Part-1
*End Instance
**  
*Nset, nset=Set-3, instance=Part-1-1
 1,
*Nset, nset=Set-4, instance=Part-1-1
 1001,
*End Assembly
*Amplitude, name=Amp-1
             0.,              1.,          0.0001,              1.,       0.0001005,              0.,          0.0004,              0.
** 
** MATERIALS
** 
*Material, name=Material-1
*Density
2700.,
*Elastic
 6.89e+10,0.
*Plastic
    2.76e+08,          0.
 2.76075e+08, 3.25217e-06
 2.76149e+08, 6.50435e-06
 2.76224e+08, 9.75652e-06
 2.76299e+08, 1.30087e-05
 2.76373e+08, 1.62609e-05
 2.76448e+08,  1.9513e-05
 2.76523e+08, 2.27652e-05
 2.76598e+08, 2.60174e-05
 2.76672e+08, 2.92696e-05
 2.76747e+08, 3.25217e-05
 2.76822e+08, 3.57739e-05
 2.76896e+08, 3.90261e-05
 2.76971e+08, 4.22782e-05
 2.77046e+08, 4.55304e-05
  2.7712e+08, 4.87826e-05
 2.77195e+08, 5.20348e-05
  2.7727e+08, 5.52869e-05
 2.77344e+08, 5.85391e-05
 2.77419e+08, 6.17913e-05
** ... 2979 like lines cut
** ----------------------------------------------------------------
** 
** STEP: Step-1
** 
*Step, name=Step-1, nlgeom=NO
*Dynamic, Explicit, direct user control
5e-07, 0.0004
*Bulk Viscosity
0.06, 1.2
** 
** LOADS
** 
** Name: Load-1   Type: Concentrated force
*Cload, amplitude=Amp-1
Set-3, 1, 3e+08
** 
** OUTPUT REQUESTS
** 
*Restart, write, number interval=1, time marks=NO
** 
** FIELD OUTPUT: F-Output-2
** 
*Output, field, time interval=1e-100
*Element Output, directions=YES
E, S
** 
** HISTORY OUTPUT: H-Output-1
** 
*Output, history, variable=PRESELECT
*End Step
