*Heading
** Job name: Straight-Rod-Example2 Model name: Straight Rod-Example 2
** Generated by: Abaqus/CAE 2021
*Preprint, echo=NO, model=NO, history=NO, contact=NO
**
** PARTS
**
*Part, name=Part-1
*Node
      1,          1.5,           0.
      2,        1.505,           0.
      3,   1.50999999,           0.
      4,   1.51499999,           0.
      5,   1.51999998,           0.
      6,   1.52499998,           0.
      7,   1.52999997,           0.
      8,   1.53499997,           0.
      9,   1.53999996,           0.
     10,   1.54499996,           0.
     11,   1.54999995,           0.
     12,   1.55499995,           0.
     13,   1.55999994,           0.
     14,   1.56500006,           0.
     15,   1.57000005,           0.
     16,   1.57500005,           0.
     17,   1.58000004,           0.
     18,   1.58500004,           0.
     19,   1.59000003,           0.
     20,   1.59500003,           0.
** ... 181 like lines cut
*Element, type=T2D2
  1,   1,   2
  2,   2,   3
  3,   3,   4
  4,   4,   5
  5,   5,   6
  6,   6,   7
  7,   7,   8
  8,   8,   9
  9,   9,  10
 10,  10,  11
 11,  11,  12
 12,  12,  13
 13,  13,  14
 14,  14,  15
 15,  15,  16
 16,  16,  17
 17,  17,  18
 18,  18,  19
 19,  19,  20
 20,  20,  21
** ... 180 like lines cut
*Nset, nset=Set-1, generate
   1,  201,    1
*Elset, elset=Set-1, generate
   1,  200,    1
*Nset, nset=Set-2, generate
   1,  201,    1
*Elset, elset=Set-2, generate
   1,  200,    1
*Nset, nset=Set-3, generate
   1,  201,    1
*Elset, elset=Set-3, generate
   1,  200,    1
*Nset, nset=Set-5, generate
   1,  201,    1
*Elset, elset=Set-5, generate
   1,  200,    1
** Section: Section-2
*Solid Section, elset=Set-5, material=Material-1
1.,
*End Part
**  
**
** ASSEMBLY
**
*Assembly, name=Assembly
**  
*Instance, name=Part-1-1, part=Part-1
*End Instance
**  
*Nset, nset=Set-3, instance=Part-1-1
 1,
*Nset, nset=Set-4, instance=Part-1-1
 201,
*Nset, nset=Set-5, instance=Part-1-1
 1,
*End Assembly
*Amplitude, name=Amp-1
             0.,              1.,          0.0015,              1.
** 
** MATERIALS
** 
*Material, name=Material-1
*Density
2700.,
*Elastic
 6.89e+10,0.
*Plastic
    2.76e+08,          0.
 2.76224e+08, 2.60347e-05
 2.76448e+08, 5.20695e-05
 2.76673e+08, 7.81042e-05
 2.76897e+08, 0.000104139
 2.77121e+08, 0.000130174
 2.77345e+08, 0.000156208
  2.7757e+08, 0.000182243
 2.77794e+08, 0.000208278
 2.78018e+08, 0.000234313
 2.78242e+08, 0.000260347
 2.78466e+08, 0.000286382
 2.78691e+08, 0.000312417
 2.78915e+08, 0.000338452
 2.79139e+08, 0.000364486
 2.79363e+08, 0.000390521
 2.79588e+08, 0.000416556
 2.79812e+08, 0.000442591
 2.80036e+08, 0.000468625
  2.8026e+08,  0.00049466
** ... 979 like lines cut
** ----------------------------------------------------------------
** 
** STEP: Step-1
** 
*Step, name=Step-1, nlgeom=NO
*Dynamic, Explicit, direct user control
5e-07, 0.0004
*Bulk Viscosity
0.06, 1.2
** 
** LOADS
** 
** Name: Load-1   Type: Concentrated force
*Cload
Set-3, 1, 3e+08
** 
** OUTPUT REQUESTS
** 
*Restart, write, number interval=1, time marks=NO
** 
** FIELD OUTPUT: F-Output-2
** 
*Output, field, time interval=1e-100
*Element Output, directions=YES
E, S
** 
** HISTORY OUTPUT: H-Output-1
** 
*Output, history, variable=PRESELECT
*End Step
